Circuit: * C:\Users\J-Devil\Documents\Koulujutut\Elektroniikkan_perusteet\Draft1.asc

Direct Newton iteration for .op point succeeded.

Date: Sun Feb 08 19:38:42 2015
Total elapsed time: 0.049 seconds.

tnom = 27
temp = 27
method = modified trap
totiter = 2092
traniter = 2082
tranpoints = 1042
accept = 1042
rejected = 0
matrix size = 4
fillins = 0
solver = Normal
Matrix Compiler1: 100 bytes object code size  0.0/0.1/[0.0]
Matrix Compiler2: 248 bytes object code size  0.1/0.1/[0.1]


