Circuit: * C:\Users\J-Devil\Documents\Koulujutut\Elektroniikkan_perusteet\HT_teht1_2.asc

.OP point found by inspection.

Date: Sun Feb 08 20:44:35 2015
Total elapsed time: 0.049 seconds.

tnom = 27
temp = 27
method = modified trap
totiter = 2268
traniter = 2268
tranpoints = 1074
accept = 1073
rejected = 1
matrix size = 10
fillins = 5
solver = Normal
Matrix Compiler1: 672 bytes object code size  0.3/0.2/[0.2]
Matrix Compiler2: 802 bytes object code size  0.2/0.3/[0.1]


