Circuit: * C:\Users\J-Devil\Documents\Koulujutut\Elektroniikkan_perusteet\HT_teht5.asc


Date: Sun Feb 08 22:42:52 2015
Total elapsed time: 0.014 seconds.

tnom = 27
temp = 27
method = trap
totiter = 0
traniter = 0
tranpoints = 0
accept = 0
rejected = 0
matrix size = 6
fillins = 0
solver = Normal

