Circuit: * C:\Users\J-Devil\Documents\Koulujutut\Elektroniikkan_perusteet\HT_teht4_anturi_c2.asc

Direct Newton iteration failed to find .op point.  (Use ".option noopiter" to skip.)
Starting Gmin stepping
Gmin = 10
Gmin = 1.07374
Gmin = 0.115292
Gmin = 0.0123794
Gmin = 0.00132923
Gmin = 0.000142725
Gmin = 1.5325e-005
Gmin = 1.6455e-006
Gmin = 1.76685e-007
Gmin = 1.89714e-008
Gmin = 2.03704e-009
Gmin = 2.18725e-010
Gmin = 2.34854e-011
Gmin = 2.52173e-012
Gmin = 2.70769e-013
Gmin = 0
Gmin stepping succeeded in finding the operating point.

.step x=1e-011
.step x=2.5e-011
.step x=4e-011
.step x=5.5e-011
.step x=7e-011
.step x=8.5e-011
.step x=1e-010
.step x=1.15e-010
.step x=1.3e-010
.step x=1.45e-010
.step x=1.5e-010

Date: Mon Feb 09 00:14:11 2015
Total elapsed time: 1.760 seconds.

tnom = 27
temp = 27
method = modified trap
totiter = 2583
traniter = 2198
tranpoints = 1100
accept = 1093
rejected = 7
matrix size = 23
fillins = 31
solver = Normal
Thread vector: 28.2/18.8[2] 7.1/4.4[2] 4.8/2.7[2] 0.4/31.7[1]  2592/500
Matrix Compiler1: 3,03 KB object code size  1.2/1.0/[0.3]
Matrix Compiler2: off  [1.2]/1.4/1.8


