Circuit: * C:\Users\J-Devil\Documents\GitHub\Elektroniikan_perusteet\HT_teht6_kytkinkäyttö.asc

Direct Newton iteration for .op point succeeded.

Date: Wed Apr 29 14:10:14 2015
Total elapsed time: 0.139 seconds.

tnom = 27
temp = 27
method = modified trap
totiter = 8034
traniter = 8019
tranpoints = 3503
accept = 2934
rejected = 569
matrix size = 11
fillins = 0
solver = Normal
Matrix Compiler1: 574 bytes object code size  0.3/0.2/[0.1]
Matrix Compiler2: off  [0.1]/0.3/0.3


