Circuit: * Z:\nisju\Elektroniikkan perusteet\integraattori.asc

Direct Newton iteration failed to find .op point.  (Use ".option noopiter" to skip.)
Starting Gmin stepping
Gmin = 10
Gmin = 1.07374
Gmin = 0.115292
Gmin = 0.0123794
Gmin = 0.00132923
Gmin = 0.000142725
Gmin = 1.5325e-005
Gmin = 1.6455e-006
Gmin = 1.76685e-007
Gmin = 1.89714e-008
Gmin = 2.03704e-009
Gmin = 2.18725e-010
Gmin = 2.34854e-011
Gmin = 2.52173e-012
Gmin = 2.70769e-013
Gmin = 0
Gmin stepping succeeded in finding the operating point.


Date: Thu Jan 29 14:42:14 2015
Total elapsed time: 0.233 seconds.

tnom = 27
temp = 27
method = modified trap
totiter = 5531
traniter = 5147
tranpoints = 2566
accept = 2293
rejected = 273
matrix size = 11
fillins = 1
solver = Normal
Matrix Compiler1: 526 bytes object code size  1.1/0.9/[0.8]
Matrix Compiler2: off  [1.1]/1.3/1.3


