Circuit: * Z:\nisju\Elektroniikkan perusteet\Jänniteseuraaja.asc

Direct Newton iteration for .op point succeeded.

Date: Thu Jan 29 13:33:23 2015
Total elapsed time: 0.160 seconds.

tnom = 27
temp = 27
method = modified trap
totiter = 2110
traniter = 2098
tranpoints = 1050
accept = 1048
rejected = 2
matrix size = 10
fillins = 1
solver = Normal
Matrix Compiler1: 462 bytes object code size  0.9/0.9/[0.8]
Matrix Compiler2: 966 bytes object code size  1.0/1.0/[1.0]


