Circuit: * C:\Users\J-Devil\Documents\Koulujutut\Elektroniikkan_perusteet\Kapasitiivinen_anturi.asc

Direct Newton iteration failed to find .op point.  (Use ".option noopiter" to skip.)
Starting Gmin stepping
Gmin = 10
Gmin = 1.07374
Gmin = 0.115292
Gmin = 0.0123794
Gmin = 0.00132923
Gmin = 0.000142725
Gmin = 1.5325e-005
Gmin = 1.6455e-006
vernier = 0.5
Gmin = 3.40827e-007
vernier = 0.666667
vernier = 0.333333
vernier = 0.166667
vernier = 0.0833333
vernier = 0.0416667
vernier = 0.0208333
Gmin = 2.05177e-007
vernier = 0.0277778
Gmin = 1.93118e-007
vernier = 0.037037
vernier = 0.0493827
Gmin = 1.74909e-007
vernier = 0.0658435
vernier = 0.0877914
Gmin = 1.49573e-007
vernier = 0.117055
Gmin = 1.16165e-007
vernier = 0.156073
vernier = 0.208098
Gmin = 7.7043e-008
vernier = 0.277464
vernier = 0.369952
Gmin = 4.05024e-008
vernier = 0.493269
Gmin = 1.45508e-008
vernier = 0.657691
vernier = 0.876922
Gmin = 2.86723e-009
vernier = 1
Gmin = 3.31768e-010
Gmin = 3.56233e-011
Gmin = 3.82502e-012
Gmin = 4.10709e-013
Gmin = 0
Gmin stepping succeeded in finding the operating point.

.step x=1e-009
.step x=1.1e-009
.step x=1.2e-009
.step x=1.3e-009
.step x=1.4e-009
.step x=1.5e-009
.step x=1.6e-009
.step x=1.7e-009
.step x=1.8e-009
.step x=1.9e-009
.step x=2e-009

Date: Mon Feb 09 00:07:20 2015
Total elapsed time: 1.839 seconds.

tnom = 27
temp = 27
method = modified trap
totiter = 3516
traniter = 2356
tranpoints = 1179
accept = 1152
rejected = 27
matrix size = 23
fillins = 31
solver = Normal
Thread vector: 28.2/20.9[2] 6.9/4.2[2] 3.3/2.8[2] 0.4/1.2[1]  2592/500
Matrix Compiler1: 3,02 KB object code size  1.2/0.9/[0.3]
Matrix Compiler2: off  [1.1]/1.3/1.5


