Circuit: * C:\Users\J-Devil\Documents\GitHub\Elektroniikan_perusteet\Transistorinkytkinkäyttö.asc

Direct Newton iteration for .op point succeeded.

Date: Wed Apr 29 13:28:02 2015
Total elapsed time: 0.128 seconds.

tnom = 27
temp = 27
method = modified trap
totiter = 7508
traniter = 7496
tranpoints = 3233
accept = 2781
rejected = 452
matrix size = 11
fillins = 0
solver = Normal
Matrix Compiler1: 574 bytes object code size  0.3/0.2/[0.1]
Matrix Compiler2: off  [0.2]/0.3/0.3


