Circuit: * C:\Users\J-Devil\Documents\GitHub\Elektroniikan_perusteet\Transistorikytkin_ominaiskäyrä.asc

.OP point found by inspection.
.step i1=0
.step i1=0.002
.step i1=0.004
.step i1=0.006
.step i1=0.008
.step i1=0.01
.step i1=0.012
.step i1=0.014

Date: Sun Feb 15 23:05:51 2015
Total elapsed time: 0.101 seconds.

tnom = 27
temp = 27
method = trap
totiter = 24107
traniter = 0
tranpoints = 0
accept = 0
rejected = 0
matrix size = 6
fillins = 0
solver = Normal
Matrix Compiler1: 360 bytes object code size  0.2/0.1/[0.1]
Matrix Compiler2: 462 bytes object code size  0.1/0.2/[0.1]


